examplecase.py
# Copyright (c) 1996-2015 PSERC. All rights reserved.
# Use of this source code is governed by a BSD-style
# license that can be found in the LICENSE file.

"""Power flow data for IEEE 14 bus test case.
"""

from numpy import array

def case14():
    """Power flow data for IEEE 14 bus test case.
    Please see L{caseformat} for details on the case file format.

    This data was converted from IEEE Common Data Format
    (ieee14cdf.txt) on 20-Sep-2004 by cdf2matp, rev. 1.11

    Converted from IEEE CDF file from:
    U{http://www.ee.washington.edu/research/pstca/}

    08/19/93 UW ARCHIVE           100.0  1962 W IEEE 14 Bus Test Case

    @return: Power flow data for IEEE 14 bus test case.
    """
    ppc = {"version": '2'}

    ##-----  Power Flow Data  -----##
    ## system MVA base
    ppc["baseMVA"] = 100.0

    ## bus data
    # bus_i type Pd Qd Gs Bs area Vm Va baseKV zone Vmax Vmin
    ppc["bus"] = array([
        [1,  3,  0,    0,   0, 0,  1, 1.06,    0,    0, 1, 1.06, 0.94],
        [2,  2, 0, 0, 0, 0,  1, 1.045,  -4.98, 0, 1, 1.06, 0.94],
        [3,  2, 0, 0,   0, 0,  1, 1.01,  -12.72, 0, 1, 1.06, 0.94],
        [4,  1, 0, 0, 0, 0,  1, 1.019, -10.33, 0, 1, 1.06, 0.94],
        [5,  1,  0,  0, 0, 0,  1, 1.02,   -8.78, 0, 1, 1.06, 0.94],
        [6,  2, 0,  0, 0, 0,  1, 1.07,  -14.22, 0, 1, 1.06, 0.94],
        [7,  1,  0,    0,   0, 0,  1, 1.062, -13.37, 0, 1, 1.06, 0.94],
        [8,  2,  0,    0,   0, 0,  2, 1.09,  -13.36, 0, 1, 1.06, 0.94],
        [9,  1, 0, 0, 0, 19, 2, 1.0111, -14.94, 0, 1, 1.06, 0.94],
        [10, 1,  0,    0, 0, 0,  2, 1.051, -15.1,  0, 1, 1.06, 0.94],
        [11, 1,  0,  0, 0, 0,  2, 1.057, -14.79, 0, 1, 1.06, 0.94],
        [12, 1,  0,  0, 0, 0,  2, 1.055, -15.07, 0, 1, 1.06, 0.94],
        [13, 1, 0,  0, 0, 0,  2, 1.05,  -15.16, 0, 1, 1.06, 0.94],
        [14, 1, 0,  0,   0, 0,  2, 1.036, -16.04, 0, 1, 1.06, 0.94],


        [15,  3,  0,    0,   0, 0,  3, 1.06,    0,    0, 1, 1.06, 0.94],
        [16,  2, 0, 0, 0, 0,  3, 1.045,  -4.98, 0, 1, 1.06, 0.94],
        [17,  2, 0, 0,   0, 0,  3, 1.01,  -12.72, 0, 1, 1.06, 0.94],
        [18,  1, 0, 0, 0, 0,  3, 1.019, -10.33, 0, 1, 1.06, 0.94],
        [19,  1,  0,  0, 0, 0,  3, 1.02,   -8.78, 0, 1, 1.06, 0.94],
        [20,  2, 0,  0, 0, 0,  3, 1.07,  -14.22, 0, 1, 1.06, 0.94],
        [21,  1,  0,    0,   0, 0,  3, 1.062, -13.37, 0, 1, 1.06, 0.94],
        [22,  2,  0,    0,   0, 0,  4, 1.09,  -13.36, 0, 1, 1.06, 0.94],
        [23,  1, 0, 0, 0, 19, 4, 1.0111, -14.94, 0, 1, 1.06, 0.94],
        [24, 1,  0,    0, 0, 0,  4, 1.051, -15.1,  0, 1, 1.06, 0.94],
        [25, 1,  0,  0, 0, 0,  4, 1.057, -14.79, 0, 1, 1.06, 0.94],
        [26, 1,  0,  0, 0, 0,  4, 1.055, -15.07, 0, 1, 1.06, 0.94],
        [27, 1, 0,  0, 0, 0,  4, 1.05,  -15.16, 0, 1, 1.06, 0.94],
        [28, 1, 0,  0,   0, 0,  4, 1.036, -16.04, 0, 1, 1.06, 0.94]




    ])

    ## generator data
    # bus, Pg, Qg, Qmax, Qmin, Vg, mBase, status, Pmax, Pmin, Pc1, Pc2,
    # Qc1min, Qc1max, Qc2min, Qc2max, ramp_agc, ramp_10, ramp_30, ramp_q, apf
    ppc["gen"] = array([
        [1, 232.4, 0, 100,   -100, 1.06,  100, 1, 332.4, 0, 0, 0, 0, 0, 0, 0, 0, 0, 0, 0, 0],
        [2,  40,    0, 50, -100, 1.045, 100, 1, 140,   0, 0, 0, 0, 0, 0, 0, 0, 0, 0, 0, 0],
        [3,   0,    0, 40,   -100, 1.01,  100, 1, 100,   0, 0, 0, 0, 0, 0, 0, 0, 0, 0, 0, 0],
        [4,   0,   0, 100,   -100, 1,  100, 1, 0,   -20, 0, 0, 0, 0, 0, 0, 0, 0, 0, 0, 0],
        [5,   0,    0, 100,   -100, 1,  100, 1, 0,   -10, 0, 0, 0, 0, 0, 0, 0, 0, 0, 0, 0],
        [6,   0,    0, 100,  -100, 1.07,  100, 1, 100,   0, 0, 0, 0, 0, 0, 0, 0, 0, 0, 0, 0],
        [7,   0,    0, 100,   -100, 1.01,  100, 1, 200,   0, 0, 0, 0, 0, 0, 0, 0, 0, 0, 0, 0],
        [8,   0,    0,100,  -100, 1.09,  100, 1, 100,   0, 0, 0, 0, 0, 0, 0, 0, 0, 0, 0, 0],
        [9,   0,    0, 100,   -100, 1.01,  100, 1, 0,   -50, 0, 0, 0, 0, 0, 0, 0, 0, 0, 0, 0],
        [10,   0,    0, 100,   -100, 1.01,  100, 1, 0,   -50, 0, 0, 0, 0, 0, 0, 0, 0, 0, 0, 0],
        [11,   0,    0, 100,   -100, 1.01,  100, 1, 150,   0, 0, 0, 0, 0, 0, 0, 0, 0, 0, 0, 0],
        [12,   0,    0, 100,   -100, 1.01,  100, 1, 0,   -150, 0, 0, 0, 0, 0, 0, 0, 0, 0, 0, 0],
        [13,   0,    0, 100,   -100, 1,  100, 1, 0,   -30, 0, 0, 0, 0, 0, 0, 0, 0, 0, 0, 0],
        [14,   0,    0, 100,   -100, 1.01,  100, 1, 50,   0, 0, 0, 0, 0, 0, 0, 0, 0, 0, 0, 0],




        [15, 232.4, 0, 100,   -100, 1.06,  100, 1, 332.4, 0, 0, 0, 0, 0, 0, 0, 0, 0, 0, 0, 0],
        [16,  40,    0, 50, -100, 1.045, 100, 1, 140,   0, 0, 0, 0, 0, 0, 0, 0, 0, 0, 0, 0],
        [17,   0,    0, 40,   -100, 1.01,  100, 1, 100,   0, 0, 0, 0, 0, 0, 0, 0, 0, 0, 0, 0],
        
        [18,   0,   0, 100,   -100, 1,  100, 1, 0,   -20, 0, 0, 0, 0, 0, 0, 0, 0, 0, 0, 0],
        [19,   0,    0, 100,   -100, 1,  100, 1, 0,   -10, 0, 0, 0, 0, 0, 0, 0, 0, 0, 0, 0],
        [20,   0,    0, 100,  -100, 1.07,  100, 1, 100,   0, 0, 0, 0, 0, 0, 0, 0, 0, 0, 0, 0],
        [21,   0,    0, 100,   -100, 1.01,  100, 1, 200,   0, 0, 0, 0, 0, 0, 0, 0, 0, 0, 0, 0],
        [22,   0,    0,100,  -100, 1.09,  100, 1, 100,   0, 0, 0, 0, 0, 0, 0, 0, 0, 0, 0, 0],
        [23,   0,    0, 100,   -100, 1.01,  100, 1, 0,   -50, 0, 0, 0, 0, 0, 0, 0, 0, 0, 0, 0],
        [24,   0,    0, 100,   -100, 1.01,  100, 1, 0,   -50, 0, 0, 0, 0, 0, 0, 0, 0, 0, 0, 0],
        [25,   0,    0, 100,   -100, 1.01,  100, 1, 150,   0, 0, 0, 0, 0, 0, 0, 0, 0, 0, 0, 0],
        [26,   0,    0, 100,   -100, 1.01,  100, 1, 0,   -150, 0, 0, 0, 0, 0, 0, 0, 0, 0, 0, 0],
        [27,   0,    0, 100,   -100, 1,  100, 1, 0,   -30, 0, 0, 0, 0, 0, 0, 0, 0, 0, 0, 0],
        [28,   0,    0, 100,   -100, 1.01,  100, 1, 50,   0, 0, 0, 0, 0, 0, 0, 0, 0, 0, 0, 0]
        
    ])

    ## branch data
    # fbus, tbus, r, x, b, rateA, rateB, rateC, ratio, angle, status, angmin, angmax
    ppc["branch"] = array([
         [1,   2, 0.01938, 0.05917, 0.0528, 1110, 0, 0, 0,     0, 1, -360, 360],
        [1,   5, 0.05403, 0.22304, 0.0492, 1110, 0, 0, 0,     0, 1, -360, 360],
        [2,   3, 0.04699, 0.19797, 0.0438, 1110, 0, 0, 0,     0, 1, -360, 360],
        [2,   4, 0.05811, 0.17632, 0.034,  1110, 0, 0, 0,     0, 1, -360, 360],
        [2,   5, 0.05695, 0.17388, 0.0346, 1110, 0, 0, 0,     0, 1, -360, 360],
        [3,   4, 0.06701, 0.17103, 0.0128, 1110, 0, 0, 0,     0, 1, -360, 360],
        [4,   5, 0.01335, 0.04211, 0,      1110, 0, 0, 0,     0, 1, -360, 360],
        [4,   7, 0,       0.20912, 0,      1110, 0, 0, 0.978, 0, 1, -360, 360],
        [4,   9, 0,       0.55618, 0,      1110, 0, 0, 0.969, 0, 1, -360, 360],
        [5,   6, 0,       0.25202, 0,      1110, 0, 0, 0.932, 0, 1, -360, 360],
        [6,  11, 0.09498, 0.1989,  0,      1110, 0, 0, 0,     0, 1, -360, 360],
        [6,  12, 0.12291, 0.25581, 0,      1110, 0, 0, 0,     0, 1, -360, 360],
        [6,  13, 0.06615, 0.13027, 0,      1110, 0, 0, 0,     0, 1, -360, 360],
        [7,   8, 0,       0.17615, 0,      1110, 0, 0, 0,     0, 1, -360, 360],
        [7,   9, 0,       0.11001, 0,      1110, 0, 0, 0,     0, 1, -360, 360],
        [9,  10, 0.03181, 0.0845,  0,      1110, 0, 0, 0,     0, 1, -360, 360],
        [9,  14, 0.12711, 0.27038, 0,      1110, 0, 0, 0,     0, 1, -360, 360],
        [10, 11, 0.08205, 0.19207, 0,      1110, 0, 0, 0,     0, 1, -360, 360],
        [12, 13, 0.22092, 0.19988, 0,      1110, 0, 0, 0,     0, 1, -360, 360],
        [13, 14, 0.17093, 0.34802, 0,      1110, 0, 0, 0,     0, 1, -360, 360],





        [15,   16, 0.01938, 0.05917, 0.0528, 1110, 0, 0, 0,     0, 1, -360, 360],
        [15,   19, 0.05403, 0.22304, 0.0492, 1110, 0, 0, 0,     0, 1, -360, 360],
        [16,   17, 0.04699, 0.19797, 0.0438, 1110, 0, 0, 0,     0, 1, -360, 360],
        [16,   18, 0.05811, 0.17632, 0.034,  1110, 0, 0, 0,     0, 1, -360, 360],
        [16,   19, 0.05695, 0.17388, 0.0346, 1110, 0, 0, 0,     0, 1, -360, 360],
        [17,   18, 0.06701, 0.17103, 0.0128, 1110, 0, 0, 0,     0, 1, -360, 360],
        [18,   19, 0.01335, 0.04211, 0,      1110, 0, 0, 0,     0, 1, -360, 360],
        [18,   21, 0,       0.20912, 0,      1110, 0, 0, 0.978, 0, 1, -360, 360],
        [18,   23, 0,       0.55618, 0,      1110, 0, 0, 0.969, 0, 1, -360, 360],
        [19,   20, 0,       0.25202, 0,      1110, 0, 0, 0.932, 0, 1, -360, 360],
        [20,  25, 0.09498, 0.1989,  0,      1110, 0, 0, 0,     0, 1, -360, 360],
        [20,  26, 0.12291, 0.25581, 0,      1110, 0, 0, 0,     0, 1, -360, 360],
        [20,  27, 0.06615, 0.13027, 0,      1110, 0, 0, 0,     0, 1, -360, 360],
        [21,   22, 0,       0.17615, 0,      1110, 0, 0, 0,     0, 1, -360, 360],
        [21,   23, 0,       0.11001, 0,      1110, 0, 0, 0,     0, 1, -360, 360],
        [23,  24, 0.03181, 0.0845,  0,      1110, 0, 0, 0,     0, 1, -360, 360],
        [23,  28, 0.12711, 0.27038, 0,      1110, 0, 0, 0,     0, 1, -360, 360],
        [24, 25, 0.08205, 0.19207, 0,      1110, 0, 0, 0,     0, 1, -360, 360],
        [26, 27, 0.22092, 0.19988, 0,      1110, 0, 0, 0,     0, 1, -360, 360],
        [27, 28, 0.17093, 0.34802, 0,      1110, 0, 0, 0,     0, 1, -360, 360]
    ])

    ##-----  OPF Data  -----##
    ## generator cost data
    # 1 startup shutdown n x1 y1 ... xn yn
    # 2 startup shutdown n c(n-1) ... c0
    ppc["gencost"] = array([
        [2, 0, 0, 3, 0, 20.2, 0],
        [2, 0, 0, 3, 0,      20.1, 0],
        [2, 0, 0, 3, 0,      30.2, 0],
        [2, 0, 0, 3, 0,      40.5, 0],
        [2, 0, 0, 3, 0,      40.6, 0],
        [2, 0, 0, 3, 0, 15, 0],
        [2, 0, 0, 3, 0,      21.7, 0],
        [2, 0, 0, 3, 0,      22.8, 0],
        [2, 0, 0, 3, 0,      35.9, 0],
        [2, 0, 0, 3, 0,      10.0, 0],
        [2, 0, 0, 3, 0, 40.2, 0],
        [2, 0, 0, 3, 0,      27.1, 0],
        [2, 0, 0, 3, 0,      43.3, 0],
        [2, 0, 0, 3, 0,      44.4, 0],



        [2, 0, 0, 3, 0, 10.2, 0],
        [2, 0, 0, 3, 0,      10.1, 0],
        [2, 0, 0, 3, 0,      15.2, 0],
        [2, 0, 0, 3, 0,      20.5, 0],
        [2, 0, 0, 3, 0,      20.6, 0],
        [2, 0, 0, 3, 0, 7.5, 0],
        [2, 0, 0, 3, 0,      10.7, 0],
        [2, 0, 0, 3, 0,      11.8, 0],
        [2, 0, 0, 3, 0,      17.9, 0],
        [2, 0, 0, 3, 0,      5.0, 0],
        [2, 0, 0, 3, 0, 20.2, 0],
        [2, 0, 0, 3, 0,      13.1, 0],
        [2, 0, 0, 3, 0,      22.3, 0],
        [2, 0, 0, 3, 0,      22.4, 0]
    ])

    return ppc
